!-Generator IDFEditor 1.50
!-Option SortedOrder

!-NOTE: All comments with '!-' are ignored by the IDFEditor and are generated automatically.
!-      Use '!' comments if they need to be retained when using the IDFEditor.


!-   ===========  ALL OBJECTS IN CLASS: VERSION ===========

!****ATENÇÃO****
! ***** Este arquivo.idf foi desenvolvido pelo Laboratório de Eficiência Energética em Edificações *****
! ***** O LabEEE não faz qualquer garantia, expressa ou implícita, ou assume *****
! ***** qualquer responsabilidade legal ou responsabilidade pela exatidão *****
! ***** dos componentes e suas propriedades térmicas aqui expostas. *****
! ***** Referência à qualquer produto comercial específico por nome *****
! ***** comercial, marca registrada, fabricante ou, de outra forma, não necessariamente *****
! ***** constituem ou implicam seu endosso, recomendação ou favorecimento por *****
! ***** parte do LabEEE. O nome do LabEEE não pode ser utilizado em nenhuma publicidade*****
! ***** que implica endosso ou promoção e qualquer produto, serviços ou entidades comerciais.*****
Version,
    9.0;                     !- Version Identifier


!-   ===========  ALL OBJECTS IN CLASS: SIMULATIONCONTROL ===========

SimulationControl,
    No,                      !- Do Zone Sizing Calculation
    No,                      !- Do System Sizing Calculation
    No,                      !- Do Plant Sizing Calculation
    No,                      !- Run Simulation for Sizing Periods
    Yes;                     !- Run Simulation for Weather File Run Periods


!-   ===========  ALL OBJECTS IN CLASS: BUILDING ===========

Building,
    UNI,                     !- Name
    0.0,                     !- North Axis {deg}
    City,                    !- Terrain
    0.04,                    !- Loads Convergence Tolerance Value
    0.4,                     !- Temperature Convergence Tolerance Value {deltaC}
    FullExteriorWithReflections,  !- Solar Distribution
    25,                      !- Maximum Number of Warmup Days
    6;                       !- Minimum Number of Warmup Days


!-   ===========  ALL OBJECTS IN CLASS: TIMESTEP ===========

Timestep,
    12;                      !- Number of Timesteps per Hour


!-   ===========  ALL OBJECTS IN CLASS: SIZINGPERIOD:WEATHERFILEDAYS ===========

SizingPeriod:WeatherFileDays,
    ano,                     !- Name
    1,                       !- Begin Month
    1,                       !- Begin Day of Month
    12,                      !- End Month
    31,                      !- End Day of Month
    Monday,                  !- Day of Week for Start Day
    No,                      !- Use Weather File Daylight Saving Period
    No;                      !- Use Weather File Rain and Snow Indicators


!-   ===========  ALL OBJECTS IN CLASS: RUNPERIOD ===========

RunPeriod,
    Ano,                     !- Name
    1,                       !- Begin Month
    1,                       !- Begin Day of Month
    ,                        !- Begin Year
    12,                      !- End Month
    31,                      !- End Day of Month
    ,                        !- End Year
    Monday,                  !- Day of Week for Start Day
    No,                      !- Use Weather File Holidays and Special Days
    No,                      !- Use Weather File Daylight Saving Period
    No,                      !- Apply Weekend Holiday Rule
    No,                      !- Use Weather File Rain Indicators
    No;                      !- Use Weather File Snow Indicators


!-   ===========  ALL OBJECTS IN CLASS: SITE:GROUNDTEMPERATURE:UNDISTURBED:FINITEDIFFERENCE ===========

Site:GroundTemperature:Undisturbed:FiniteDifference,
    FiniteDiff,              !- Name
    1.5,                     !- Soil Thermal Conductivity {W/m-K}
    1250,                    !- Soil Density {kg/m3}
    1500,                    !- Soil Specific Heat {J/kg-K}
    30,                      !- Soil Moisture Content Volume Fraction {percent}
    50,                      !- Soil Moisture Content Volume Fraction at Saturation {percent}
    0.4;                     !- Evapotranspiration Ground Cover Parameter {dimensionless}


!-   ===========  ALL OBJECTS IN CLASS: SITE:GROUNDDOMAIN:SLAB ===========

Site:GroundDomain:Slab,
    GroundDomain,            !- Name
    10,                      !- Ground Domain Depth {m}
    1,                       !- Aspect Ratio
    5,                       !- Perimeter Offset {m}
    1.5,                     !- Soil Thermal Conductivity {W/m-K}
    1250,                    !- Soil Density {kg/m3}
    1500,                    !- Soil Specific Heat {J/kg-K}
    30,                      !- Soil Moisture Content Volume Fraction {percent}
    50,                      !- Soil Moisture Content Volume Fraction at Saturation {percent}
    Site:GroundTemperature:Undisturbed:FiniteDifference,  !- Undisturbed Ground Temperature Model Type
    FiniteDiff,              !- Undisturbed Ground Temperature Model Name
    0.4,                     !- Evapotranspiration Ground Cover Parameter
    GroundCoupledOSCM,       !- Slab Boundary Condition Model Name
    OnGrade,                 !- Slab Location
    ,                        !- Slab Material Name
    No,                      !- Horizontal Insulation
    ,                        !- Horizontal Insulation Material Name
    Full,                    !- Horizontal Insulation Extents
    ,                        !- Perimeter Insulation Width {m}
    No,                      !- Vertical Insulation
    ,                        !- Vertical Insulation Material Name
    ,                        !- Vertical Insulation Depth {m}
    Timestep,                !- Simulation Timestep
    1.6,                     !- Geometric Mesh Coefficient
    6;                       !- Mesh Density Parameter


!-   ===========  ALL OBJECTS IN CLASS: SCHEDULETYPELIMITS ===========

ScheduleTypeLimits,
    fracao,                  !- Name
    0,                       !- Lower Limit Value
    1,                       !- Upper Limit Value
    Continuous,              !- Numeric Type
    Percent;                 !- Unit Type

ScheduleTypeLimits,
    atividade,               !- Name
    0,                       !- Lower Limit Value
    1000,                    !- Upper Limit Value
    Continuous,              !- Numeric Type
    ActivityLevel;           !- Unit Type

ScheduleTypeLimits,
    On_Off,                  !- Name
    0,                       !- Lower Limit Value
    1,                       !- Upper Limit Value
    Discrete,                !- Numeric Type
    Control;                 !- Unit Type

ScheduleTypeLimits,
    TEMPERATURE,             !- Name
    0,                       !- Lower Limit Value
    50,                      !- Upper Limit Value
    Continuous,              !- Numeric Type
    Temperature;             !- Unit Type


!-   ===========  ALL OBJECTS IN CLASS: SCHEDULE:COMPACT ===========

Schedule:Compact,
    OcupSala,                !- Name
    fracao,                  !- Schedule Type Limits Name
    Through: 12/31,          !- Field 1
    For: AllDays,            !- Field 2
    Until: 14:00,            !- Field 3
    0,                       !- Field 4
    Until: 18:00,            !- Field 5
    .5,                      !- Field 6
    Until: 22:00,            !- Field 7
    1,                       !- Field 8
    Until: 24:00,            !- Field 9
    0;                       !- Field 10

Schedule:Compact,
    OcupDorm1,               !- Name
    fracao,                  !- Schedule Type Limits Name
    Through: 12/31,          !- Field 1
    For: AllDays,            !- Field 2
    Until:  8:00,            !- Field 3
    1,                       !- Field 4
    Until: 22:00,            !- Field 5
    0,                       !- Field 6
    Until: 24:00,            !- Field 7
    1;                       !- Field 8

Schedule:Compact,
    OcupDorm2,               !- Name
    fracao,                  !- Schedule Type Limits Name
    Through: 12/31,          !- Field 1
    For: AllDays,            !- Field 2
    Until:  8:00,            !- Field 3
    1,                       !- Field 4
    Until: 22:00,            !- Field 5
    0,                       !- Field 6
    Until: 24:00,            !- Field 7
    1;                       !- Field 8

Schedule:Compact,
    IlumSala,                !- Name
    fracao,                  !- Schedule Type Limits Name
    Through: 12/31,          !- Field 1
    For: AllDays,            !- Field 2
    Until: 16:00,            !- Field 3
    0,                       !- Field 4
    Until: 22:00,            !- Field 5
    1,                       !- Field 6
    Until: 24:00,            !- Field 7
    0;                       !- Field 8

Schedule:Compact,
    IlumDorm1,               !- Name
    fracao,                  !- Schedule Type Limits Name
    Through: 12/31,          !- Field 1
    For: AllDays,            !- Field 2
    Until: 6:00,             !- Field 3
    0,                       !- Field 4
    Until: 8:00,             !- Field 5
    1,                       !- Field 6
    Until: 22:00,            !- Field 7
    0,                       !- Field 8
    Until: 24:00,            !- Field 9
    1;                       !- Field 10

Schedule:Compact,
    IlumDorm2,               !- Name
    fracao,                  !- Schedule Type Limits Name
    Through: 12/31,          !- Field 1
    For: AllDays,            !- Field 2
    Until: 6:00,             !- Field 3
    0,                       !- Field 4
    Until: 8:00,             !- Field 5
    1,                       !- Field 6
    Until: 22:00,            !- Field 7
    0,                       !- Field 8
    Until: 24:00,            !- Field 9
    1;                       !- Field 10

Schedule:Compact,
    AtivSala,                !- Name
    atividade,               !- Schedule Type Limits Name
    Through: 12/31,          !- Field 1
    For:AllDays,             !- Field 2
    Until: 24:00,            !- Field 3
    108;                     !- Field 4

Schedule:Compact,
    AtivDorm,                !- Name
    atividade,               !- Schedule Type Limits Name
    Through: 12/31,          !- Field 1
    For:AllDays,             !- Field 2
    Until: 24:00,            !- Field 3
    81;                      !- Field 4

Schedule:Compact,
    EquipSala,               !- Name
    fracao,                  !- Schedule Type Limits Name
    Through: 12/31,          !- Field 1
    For:AllDays,             !- Field 2
    Until: 14:00,            !- Field 3
    0,                       !- Field 4
    Until: 22:00,            !- Field 5
    1,                       !- Field 6
    Until: 24:00,            !- Field 7
    0;                       !- Field 8

Schedule:Compact,
    TempVentilacao,          !- Name
    TEMPERATURE,             !- Schedule Type Limits Name
    Through: 12/31,          !- Field 1
    For: AllDays,            !- Field 2
    Until: 24:00,            !- Field 3
    19;                      !- Field 4


!-   ===========  ALL OBJECTS IN CLASS: SCHEDULE:CONSTANT ===========

Schedule:Constant,
    HVAC_Sala,               !- Name
    On_Off,                  !- Schedule Type Limits Name
    0;                       !- Hourly Value

Schedule:Constant,
    VN_Sala,                 !- Name
    On_Off,                  !- Schedule Type Limits Name
    1;                       !- Hourly Value

Schedule:Constant,
    HVAC_Dorm1,              !- Name
    On_Off,                  !- Schedule Type Limits Name
    0;                       !- Hourly Value

Schedule:Constant,
    VN_Dorm1,                !- Name
    On_Off,                  !- Schedule Type Limits Name
    1;                       !- Hourly Value

Schedule:Constant,
    HVAC_Dorm2,              !- Name
    On_Off,                  !- Schedule Type Limits Name
    0;                       !- Hourly Value

Schedule:Constant,
    VN_Dorm2,                !- Name
    On_Off,                  !- Schedule Type Limits Name
    1;                       !- Hourly Value


!-   ===========  ALL OBJECTS IN CLASS: MATERIAL ===========

! Coloquei a absortância das paredes e coberturas como sendo 0.5...
Material,
    fibrocimento telha,      !- Name
    Rough,                   !- Roughness
    0.008,                   !- Thickness {m}
    0.65,                    !- Conductivity {W/m-K}
    1700,                    !- Density {kg/m3}
    840,                     !- Specific Heat {J/kg-K}
    0.9,                     !- Thermal Absorptance
    0.5,                     !- Solar Absorptance
    0.5;                     !- Visible Absorptance

Material,
    Concreto Piso,           !- Name
    Rough,                   !- Roughness
    0.07,                    !- Thickness {m}
    1.75,                    !- Conductivity {W/m-K}
    2200,                    !- Density {kg/m3}
    1000,                    !- Specific Heat {J/kg-K}
    0.9,                     !- Thermal Absorptance
    0.5,                     !- Solar Absorptance
    0.5;                     !- Visible Absorptance

Material,
    Piso ceramico,           !- Name
    Smooth,                  !- Roughness
    0.0075,                  !- Thickness {m}
    1.05,                    !- Conductivity {W/m-K}
    2000,                    !- Density {kg/m3}
    920,                     !- Specific Heat {J/kg-K}
    0.9,                     !- Thermal Absorptance
    0.5,                     !- Solar Absorptance
    0.5;                     !- Visible Absorptance

Material,
    PortaMadInt3cm,          !- Name
    MediumSmooth,            !- Roughness
    0.03,                    !- Thickness {m}
    0.15,                    !- Conductivity {W/m-K}
    650,                     !- Density {kg/m3}
    2300,                    !- Specific Heat {J/kg-K}
    0.9,                     !- Thermal Absorptance
    0.5,                     !- Solar Absorptance
    0.5;                     !- Visible Absorptance

Material,
    Concreto 10 cm,          !- Name
    Rough,                   !- Roughness
    0.1,                     !- Thickness {m}
    1.75,                    !- Conductivity {W/m-K}
    2200,                    !- Density {kg/m3}
    1000,                    !- Specific Heat {J/kg-K}
    0.9,                     !- Thermal Absorptance
    0.5,                     !- Solar Absorptance
    0.5;                     !- Visible Absorptance

Material,
    Forro Madeira,           !- Name
    Smooth,                  !- Roughness
    0.01,                    !- Thickness {m}
    0.1,                     !- Conductivity {W/m-K}
    400,                     !- Density {kg/m3}
    2300,                    !- Specific Heat {J/kg-K}
    0.9,                     !- Thermal Absorptance
    0.5,                     !- Solar Absorptance
    0.5;                     !- Visible Absorptance

Material,
    Tijolo_macico,           !- Name
    Rough,                   !- Roughness
    0.1,                     !- Thickness {m}
    1.05,                    !- Conductivity {W/m-K}
    1800,                    !- Density {kg/m3}
    920,                     !- Specific Heat {J/kg-K}
    0.9,                     !- Thermal Absorptance
    0.5,                     !- Solar Absorptance
    0.5;                     !- Visible Absorptance


!-   ===========  ALL OBJECTS IN CLASS: MATERIAL:AIRGAP ===========

Material:AirGap,
    Camara_ar_atico_telhado, !- Name
    0.21;                    !- Thermal Resistance {m2-K/W}


!-   ===========  ALL OBJECTS IN CLASS: WINDOWMATERIAL:SIMPLEGLAZINGSYSTEM ===========

WindowMaterial:SimpleGlazingSystem,
    VidFS0.87,               !- Name
    5.7,                     !- U-Factor {W/m2-K}
    0.87;                    !- Solar Heat Gain Coefficient


!-   ===========  ALL OBJECTS IN CLASS: CONSTRUCTION ===========

Construction,
    Porta_3_cm,              !- Name
    PortaMadInt3cm;          !- Outside Layer

Construction,
    Vid87,                   !- Name
    VidFS0.87;               !- Outside Layer

Construction,
    Piso_concreto,           !- Name
    Concreto Piso,           !- Outside Layer
    Piso ceramico;           !- Layer 2

Construction,
    Parede_Concreto,         !- Name
    Concreto 10 cm;          !- Outside Layer

Construction,
    Cobertura_REF,           !- Name
    fibrocimento telha,      !- Outside Layer
    Camara_ar_atico_telhado, !- Layer 2
    Forro Madeira;           !- Layer 3

Construction,
    Parede_REF,              !- Name
    Tijolo_macico;           !- Outside Layer


!-   ===========  ALL OBJECTS IN CLASS: GLOBALGEOMETRYRULES ===========

GlobalGeometryRules,
    LowerLeftCorner,         !- Starting Vertex Position
    Counterclockwise,        !- Vertex Entry Direction
    Relative,                !- Coordinate System
    Relative,                !- Daylighting Reference Point Coordinate System
    Relative;                !- Rectangular Surface Coordinate System


!-   ===========  ALL OBJECTS IN CLASS: ZONE ===========

Zone,
    Sala,                    !- Name
    0.0,                     !- Direction of Relative North {deg}
    0.0,                     !- X Origin {m}
    0.0,                     !- Y Origin {m}
    0.0,                     !- Z Origin {m}
    ,                        !- Type
    1;                       !- Multiplier

Zone,
    Dorm1,                   !- Name
    0.0,                     !- Direction of Relative North {deg}
    3.87,                    !- X Origin {m}
    1.15,                    !- Y Origin {m}
    0.0,                     !- Z Origin {m}
    ,                        !- Type
    1;                       !- Multiplier

Zone,
    Dorm2,                   !- Name
    0.0,                     !- Direction of Relative North {deg}
    3.87,                    !- X Origin {m}
    4.38,                    !- Y Origin {m}
    0.0,                     !- Z Origin {m}
    ,                        !- Type
    1;                       !- Multiplier

Zone,
    Banh1,                   !- Name
    0.0,                     !- Direction of Relative North {deg}
    0,                       !- X Origin {m}
    4.90,                    !- Y Origin {m}
    0.0,                     !- Z Origin {m}
    ,                        !- Type
    1;                       !- Multiplier


!-   ===========  ALL OBJECTS IN CLASS: BUILDINGSURFACE:DETAILED ===========

BuildingSurface:Detailed,
    PISO_QUARTO1,            !- Name
    Floor,                   !- Surface Type
    Piso_concreto,           !- Construction Name
    Dorm1,                   !- Zone Name
    OtherSideConditionsModel,!- Outside Boundary Condition
    GroundCoupledOSCM,       !- Outside Boundary Condition Object
    NoSun,                   !- Sun Exposure
    NoWind,                  !- Wind Exposure
    autocalculate,           !- View Factor to Ground
    autocalculate,           !- Number of Vertices
    0,                       !- Vertex 1 X-coordinate {m}
    3.23,                    !- Vertex 1 Y-coordinate {m}
    0.000000000000,          !- Vertex 1 Z-coordinate {m}
    2.740000000000,          !- Vertex 2 X-coordinate {m}
    3.23,                    !- Vertex 2 Y-coordinate {m}
    0.000000000000,          !- Vertex 2 Z-coordinate {m}
    2.74,                    !- Vertex 3 X-coordinate {m}
    0,                       !- Vertex 3 Y-coordinate {m}
    0.000000000000,          !- Vertex 3 Z-coordinate {m}
    0.000000000000,          !- Vertex 4 X-coordinate {m}
    0,                       !- Vertex 4 Y-coordinate {m}
    0.000000000000;          !- Vertex 4 Z-coordinate {m}

BuildingSurface:Detailed,
    PARINT1_DORM1SALA,       !- Name
    Wall,                    !- Surface Type
    Parede_REF,              !- Construction Name
    Dorm1,                   !- Zone Name
    Surface,                 !- Outside Boundary Condition
    PARINT2_SALADORM1,       !- Outside Boundary Condition Object
    NoSun,                   !- Sun Exposure
    NoWind,                  !- Wind Exposure
    autocalculate,           !- View Factor to Ground
    autocalculate,           !- Number of Vertices
    0.000000000000,          !- Vertex 1 X-coordinate {m}
    3.23,                    !- Vertex 1 Y-coordinate {m}
    0,                       !- Vertex 1 Z-coordinate {m}
    0.000000000000,          !- Vertex 2 X-coordinate {m}
    0,                       !- Vertex 2 Y-coordinate {m}
    0.000000000000,          !- Vertex 2 Z-coordinate {m}
    0.000000000000,          !- Vertex 3 X-coordinate {m}
    0,                       !- Vertex 3 Y-coordinate {m}
    2.5,                     !- Vertex 3 Z-coordinate {m}
    0.000000000000,          !- Vertex 4 X-coordinate {m}
    3.23,                    !- Vertex 4 Y-coordinate {m}
    2.500000000000;          !- Vertex 4 Z-coordinate {m}

BuildingSurface:Detailed,
    PAREXT_LESTE_DORM1,      !- Name
    Wall,                    !- Surface Type
    Parede_REF,              !- Construction Name
    Dorm1,                   !- Zone Name
    Outdoors,                !- Outside Boundary Condition
    ,                        !- Outside Boundary Condition Object
    SunExposed,              !- Sun Exposure
    WindExposed,             !- Wind Exposure
    autocalculate,           !- View Factor to Ground
    autocalculate,           !- Number of Vertices
    2.740000000000,          !- Vertex 1 X-coordinate {m}
    0,                       !- Vertex 1 Y-coordinate {m}
    0,                       !- Vertex 1 Z-coordinate {m}
    2.740000000000,          !- Vertex 2 X-coordinate {m}
    3.23,                    !- Vertex 2 Y-coordinate {m}
    0.000000000000,          !- Vertex 2 Z-coordinate {m}
    2.740000000000,          !- Vertex 3 X-coordinate {m}
    3.23,                    !- Vertex 3 Y-coordinate {m}
    2.5,                     !- Vertex 3 Z-coordinate {m}
    2.740000000000,          !- Vertex 4 X-coordinate {m}
    0,                       !- Vertex 4 Y-coordinate {m}
    2.500000000000;          !- Vertex 4 Z-coordinate {m}

BuildingSurface:Detailed,
    FORRO_DORM1ATICO,        !- Name
    Roof,                    !- Surface Type
    Cobertura_REF,           !- Construction Name
    Dorm1,                   !- Zone Name
    Outdoors,                !- Outside Boundary Condition
    ,                        !- Outside Boundary Condition Object
    SunExposed,              !- Sun Exposure
    WindExposed,             !- Wind Exposure
    autocalculate,           !- View Factor to Ground
    autocalculate,           !- Number of Vertices
    0,                       !- Vertex 1 X-coordinate {m}
    0,                       !- Vertex 1 Y-coordinate {m}
    2.500000000000,          !- Vertex 1 Z-coordinate {m}
    2.740000000000,          !- Vertex 2 X-coordinate {m}
    0,                       !- Vertex 2 Y-coordinate {m}
    2.500000000000,          !- Vertex 2 Z-coordinate {m}
    2.74,                    !- Vertex 3 X-coordinate {m}
    3.23,                    !- Vertex 3 Y-coordinate {m}
    2.500000000000,          !- Vertex 3 Z-coordinate {m}
    0.000000000000,          !- Vertex 4 X-coordinate {m}
    3.23,                    !- Vertex 4 Y-coordinate {m}
    2.500000000000;          !- Vertex 4 Z-coordinate {m}

BuildingSurface:Detailed,
    PAREXT_SUL_DORM1,        !- Name
    Wall,                    !- Surface Type
    Parede_REF,              !- Construction Name
    Dorm1,                   !- Zone Name
    Outdoors,                !- Outside Boundary Condition
    ,                        !- Outside Boundary Condition Object
    SunExposed,              !- Sun Exposure
    WindExposed,             !- Wind Exposure
    autocalculate,           !- View Factor to Ground
    autocalculate,           !- Number of Vertices
    0.000000000000,          !- Vertex 1 X-coordinate {m}
    0,                       !- Vertex 1 Y-coordinate {m}
    0,                       !- Vertex 1 Z-coordinate {m}
    2.74,                    !- Vertex 2 X-coordinate {m}
    0,                       !- Vertex 2 Y-coordinate {m}
    0.000000000000,          !- Vertex 2 Z-coordinate {m}
    2.740000000000,          !- Vertex 3 X-coordinate {m}
    0,                       !- Vertex 3 Y-coordinate {m}
    2.5,                     !- Vertex 3 Z-coordinate {m}
    0,                       !- Vertex 4 X-coordinate {m}
    0,                       !- Vertex 4 Y-coordinate {m}
    2.500000000000;          !- Vertex 4 Z-coordinate {m}

BuildingSurface:Detailed,
    PARINT2_DORM1DORM2,      !- Name
    Wall,                    !- Surface Type
    Parede_REF,              !- Construction Name
    Dorm1,                   !- Zone Name
    Surface,                 !- Outside Boundary Condition
    PARINT2_DORM2DORM1,      !- Outside Boundary Condition Object
    NoSun,                   !- Sun Exposure
    NoWind,                  !- Wind Exposure
    autocalculate,           !- View Factor to Ground
    autocalculate,           !- Number of Vertices
    2.740000000000,          !- Vertex 1 X-coordinate {m}
    3.23,                    !- Vertex 1 Y-coordinate {m}
    0,                       !- Vertex 1 Z-coordinate {m}
    0,                       !- Vertex 2 X-coordinate {m}
    3.23,                    !- Vertex 2 Y-coordinate {m}
    0.000000000000,          !- Vertex 2 Z-coordinate {m}
    0.000000000000,          !- Vertex 3 X-coordinate {m}
    3.23,                    !- Vertex 3 Y-coordinate {m}
    2.5,                     !- Vertex 3 Z-coordinate {m}
    2.74,                    !- Vertex 4 X-coordinate {m}
    3.23,                    !- Vertex 4 Y-coordinate {m}
    2.500000000000;          !- Vertex 4 Z-coordinate {m}

BuildingSurface:Detailed,
    PISO_QUARTO2,            !- Name
    Floor,                   !- Surface Type
    Piso_concreto,           !- Construction Name
    Dorm2,                   !- Zone Name
    OtherSideConditionsModel,!- Outside Boundary Condition
    GroundCoupledOSCM,       !- Outside Boundary Condition Object
    NoSun,                   !- Sun Exposure
    NoWind,                  !- Wind Exposure
    autocalculate,           !- View Factor to Ground
    autocalculate,           !- Number of Vertices
    0,                       !- Vertex 1 X-coordinate {m}
    3.03,                    !- Vertex 1 Y-coordinate {m}
    0.000000000000,          !- Vertex 1 Z-coordinate {m}
    2.74,                    !- Vertex 2 X-coordinate {m}
    3.03,                    !- Vertex 2 Y-coordinate {m}
    0.000000000000,          !- Vertex 2 Z-coordinate {m}
    2.74,                    !- Vertex 3 X-coordinate {m}
    0.000000000000,          !- Vertex 3 Y-coordinate {m}
    0.000000000000,          !- Vertex 3 Z-coordinate {m}
    0.000000000000,          !- Vertex 4 X-coordinate {m}
    0,                       !- Vertex 4 Y-coordinate {m}
    0.000000000000;          !- Vertex 4 Z-coordinate {m}

BuildingSurface:Detailed,
    FORRO_DORM2ATICO,        !- Name
    Roof,                    !- Surface Type
    Cobertura_REF,           !- Construction Name
    Dorm2,                   !- Zone Name
    Outdoors,                !- Outside Boundary Condition
    ,                        !- Outside Boundary Condition Object
    SunExposed,              !- Sun Exposure
    WindExposed,             !- Wind Exposure
    autocalculate,           !- View Factor to Ground
    autocalculate,           !- Number of Vertices
    0,                       !- Vertex 1 X-coordinate {m}
    0,                       !- Vertex 1 Y-coordinate {m}
    2.500000000000,          !- Vertex 1 Z-coordinate {m}
    2.740000000000,          !- Vertex 2 X-coordinate {m}
    0.000000000000,          !- Vertex 2 Y-coordinate {m}
    2.500000000000,          !- Vertex 2 Z-coordinate {m}
    2.74,                    !- Vertex 3 X-coordinate {m}
    3.03,                    !- Vertex 3 Y-coordinate {m}
    2.500000000000,          !- Vertex 3 Z-coordinate {m}
    0.000000000000,          !- Vertex 4 X-coordinate {m}
    3.030000000000,          !- Vertex 4 Y-coordinate {m}
    2.500000000000;          !- Vertex 4 Z-coordinate {m}

BuildingSurface:Detailed,
    PAREXT_LESTE_DORM2,      !- Name
    Wall,                    !- Surface Type
    Parede_REF,              !- Construction Name
    Dorm2,                   !- Zone Name
    Outdoors,                !- Outside Boundary Condition
    ,                        !- Outside Boundary Condition Object
    SunExposed,              !- Sun Exposure
    WindExposed,             !- Wind Exposure
    autocalculate,           !- View Factor to Ground
    autocalculate,           !- Number of Vertices
    2.740000000000,          !- Vertex 1 X-coordinate {m}
    0.000000000000,          !- Vertex 1 Y-coordinate {m}
    0,                       !- Vertex 1 Z-coordinate {m}
    2.740000000000,          !- Vertex 2 X-coordinate {m}
    3.03,                    !- Vertex 2 Y-coordinate {m}
    0.000000000000,          !- Vertex 2 Z-coordinate {m}
    2.740000000000,          !- Vertex 3 X-coordinate {m}
    3.030000000000,          !- Vertex 3 Y-coordinate {m}
    2.5,                     !- Vertex 3 Z-coordinate {m}
    2.740000000000,          !- Vertex 4 X-coordinate {m}